/*--------------------------------*- C++ -*----------------------------------*\
| =========                 |                                                 |
| \\      /  F ield         | OpenFOAM: The Open Source CFD Toolbox           |
|  \\    /   O peration     | Version:  2512                                  |
|   \\  /    A nd           | Web:      www.OpenFOAM.com                      |
|    \\/     M anipulation  |                                                 |
\*---------------------------------------------------------------------------*/
FoamFile
{
    version     2.0;
    format      ascii;
    class       dictionary;
    object      fvSolution;
}
// * * * * * * * * * * * * * * * * * * * * * * * * * * * * * * * * * * * * //

solvers
{
    p
    {
        solver          PCG;
        preconditioner  DIC;
        tolerance       1e-06;
        relTol          0.05;
    }

    pFinal
    {
        $p;
        relTol          0;
    }

    U
    {
        solver          smoothSolver;
        smoother        symGaussSeidel;
        tolerance       1e-05;
        relTol          0.1;
    }

    UFinal
    {
        $U;
        relTol          0;
    }
}

PIMPLE
{
    // nOuterCorrectors = 3: CFL_inlet_peak = 0.48 and CFL_outlet_peak = 0.24,
    // both < 1. PISO (1 corrector) is stable, but 3 correctors give robustness
    // near the step shear layer and recirculation zone without extra cost.
    nOuterCorrectors    3;
    nCorrectors         2;
    nNonOrthogonalCorrectors 1;
}

// ************************************************************************* //
