/*--------------------------------*- C++ -*----------------------------------*\
| =========                 |                                                 |
| \\      /  F ield         | OpenFOAM: The Open Source CFD Toolbox           |
|  \\    /   O peration     | Version:  2512                                  |
|   \\  /    A nd           | Web:      www.OpenFOAM.com                      |
|    \\/     M anipulation  |                                                 |
\*---------------------------------------------------------------------------*/
FoamFile
{
    version     2.0;
    format      ascii;
    class       volVectorField;
    object      U;
}
// * * * * * * * * * * * * * * * * * * * * * * * * * * * * * * * * * * * * //

// Experiment 04 — Womersley Pulsatile Flow Through a Vessel Junction (No Graft)
//
// Inlet: codedFixedValue — Womersley pulsatile profile  (Aboelkassem & Virag 2019)
// ─────────────────────────────────────────────────────────────────────────
// Same Womersley inlet as Experiment 04 (identical donor vessel R = 0.005 m = r1).
// The full Womersley solution replaces the parabolic approximation.
// At Womersley number α = R√(ω₀/ν) ≈ 7.45 the parabolic assumption is
// significantly inaccurate; the true profile is blunter at peak systole
// and shows near-wall flow reversal during the deceleration phase.
//
// Method (Womersley 1955; Aboelkassem & Virag 2019, Eq. 14):
//   1. The cardiac waveform U_mean(t) is Fourier-decomposed into N=8 harmonics.
//   2. For each harmonic n, a complex Womersley shape function W_n(η) is
//      precomputed (η = r/R ∈ [0,1]) using Bessel functions J₀, J₁.
//      Λ_n = R·√(i·n·ω₀/ν),  W_n(η) = [1 − J₀(Λ_nη)/J₀(Λ_n)] / [1 − 2J₁(Λ_n)/(Λ_nJ₀(Λ_n))]
//   3. Velocity at (r,t): U(r,t) = 2·U₀·(1−η²)           [DC Poiseuille]
//                                + Σₙ Re[Ûₙ · W_n(η) · e^(inω₀t)]  [harmonics]
//      where Ûₙ = Aₙ + i·Bₙ are the complex Fourier amplitudes.
//
// Shape functions stored as 60-point radial lookup tables (η=0 centre → η=1 wall).
// The Womersley shape functions satisfy W_n(1)=0 (no-slip at wall by construction).
//
// Cardiac waveform -- Holdsworth et al. (1999) archetypal CCA waveform:
//   PCHIP interpolation through physiological control points:
//     t_peak  = 0.142 s  (peak systole,   phi = 0.166T)
//     t_notch = 0.372 s  (dicrotic notch, phi = 0.434T)
//   Velocities: U_peak = 0.50 m/s, U_dia = 0.05 m/s
//   Dicrotic notch: U_notch = 0.10 m/s  (V_notch/V_peak ~ 0.20)
//   Q_peak ~ 39 mL/s,  Q_mean ~ 10.3 mL/s,  Q_notch ~ 7.9 mL/s
//   N=20 Fourier harmonics -- diastolic reconstruction error < 0.35 mL/s
//            Aboelkassem Y & Virag Z (2019) J. Theor. Biol. 462:499–513
//
// Outlet: inletOutlet — zero-gradient on outflow.
// Wall:   noSlip (covers upstream r1 cylinder, step face, downstream r2 cylinder).

dimensions      [0 1 -1 0 0 0 0];

internalField   uniform (0 0 0);

boundaryField
{
    inlet
    {
        type            codedFixedValue;
        value           uniform (0 0 0);
        name            womersleyInlet;

        code
        #{
            // ── Physical constants ────────────────────────────────────────
            const scalar T_     = 0.857;          // cardiac period [s] (70 bpm)
            const scalar R_     = 0.005;          // vessel radius [m]
            const scalar omega0 = 2.0*M_PI/T_;   // fundamental frequency [rad/s]
            const int    N_harm = 20;              // number of Fourier harmonics
            const int    N_rad  = 60;             // radial lookup-table points

            // -- Fourier coefficients of the mean-velocity waveform [m/s]
            // Holdsworth 1999 CCA waveform, PCHIP interpolation, N=20 harmonics
            // U_hat[n] = A[n] + i*B[n]  for harmonic n = 1..20
            const scalar U0_   = 0.13094641;  // DC mean velocity [m/s]
            const scalar U_A[20] = {
                0.04888798, -0.03706391, -0.07342242, -0.02397981,
                0.00983550, 0.01093222, -0.00041420, -0.00454744,
                0.00005607, -0.00210225, -0.00161019, -0.00049864,
                -0.00054283, -0.00043744, -0.00116622, 0.00027542,
                -0.00026795, -0.00033978, 0.00012202, -0.00030415
            };
            const scalar U_B[20] = {
                0.10488423, 0.08965915, 0.01003872, -0.03582330,
                -0.01781269, 0.00136723, 0.00795743, 0.00023111,
                0.00000116, 0.00146031, -0.00094727, -0.00013077,
                -0.00029651, 0.00040936, -0.00047531, -0.00059204,
                0.00039510, -0.00038435, 0.00012053, 0.00007214
            };

            // -- Womersley shape functions W_n(eta): Re and Im parts
            // Precomputed via scipy.special.jv for alpha_n = R*sqrt(n*omega0/nu):
            //   n=1: alpha=7.453, n=10: alpha=23.567, n=20: alpha=33.329
            // eta = r/R from 0 (centre) to 1 (wall) in 60 uniform steps
            const scalar Wr[20][60] = {
              {
                0.99474348, 0.99488070, 0.99529261, 0.99597993, 0.99694379,
                0.99818560, 0.99970695, 1.00150935, 1.00359401, 1.00596157,
                1.00861175, 1.01154298, 1.01475198, 1.01823327, 1.02197869,
                1.02597683, 1.03021243, 1.03466579, 1.03931203, 1.04412045,
                1.04905379, 1.05406745, 1.05910880, 1.06411636, 1.06901908,
                1.07373559, 1.07817352, 1.08222885, 1.08578530, 1.08871392,
                1.09087261, 1.09210600, 1.09224531, 1.09110850, 1.08850067,
                1.08421464, 1.07803197, 1.06972416, 1.05905443, 1.04577976,
                1.02965353, 1.01042862, 0.98786116, 0.96171480, 0.93176570,
                0.89780829, 0.85966161, 0.81717665, 0.77024430, 0.71880426,
                0.66285475, 0.60246309, 0.53777703, 0.46903703, 0.39658912,
                0.32089862, 0.24256433, 0.16233322, 0.08111555, 0.00000000
              },
              {
                0.99663322, 0.99660734, 0.99653035, 0.99640421, 0.99623222,
                0.99601912, 0.99577122, 0.99549646, 0.99520465, 0.99490758,
                0.99461921, 0.99435583, 0.99413624, 0.99398189, 0.99391693,
                0.99396828, 0.99416561, 0.99454118, 0.99512960, 0.99596744,
                0.99709273, 0.99854410, 1.00035994, 1.00257706, 1.00522929,
                1.00834559, 1.01194800, 1.01604910, 1.02064923, 1.02573326,
                1.03126708, 1.03719370, 1.04342912, 1.04985792, 1.05632868,
                1.06264946, 1.06858323, 1.07384369, 1.07809152, 1.08093134,
                1.08190978, 1.08051481, 1.07617698, 1.06827271, 1.05613038,
                1.03903956, 1.01626408, 0.98705933, 0.95069466, 0.90648121,
                0.85380592, 0.79217210, 0.72124716, 0.64091766, 0.55135191,
                0.45307009, 0.34702147, 0.23466822, 0.11807458, 0.00000000
              },
              {
                1.00074493, 1.00073744, 1.00071465, 1.00067562, 1.00061880,
                1.00054213, 1.00044308, 1.00031879, 1.00016619, 0.99998222,
                0.99976403, 0.99950927, 0.99921641, 0.99888514, 0.99851678,
                0.99811484, 0.99768549, 0.99723824, 0.99678650, 0.99634827,
                0.99594674, 0.99561089, 0.99537598, 0.99528386, 0.99538315,
                0.99572904, 0.99638276, 0.99741059, 0.99888218, 1.00086830,
                1.00343765, 1.00665274, 1.01056475, 1.01520719, 1.02058826,
                1.02668207, 1.03341849, 1.04067189, 1.04824889, 1.05587541,
                1.06318351, 1.06969849, 1.07482720, 1.07784839, 1.07790638,
                1.07400957, 1.06503538, 1.04974368, 1.02680093, 0.99481736,
                0.95239975, 0.89822253, 0.83111957, 0.75019925, 0.65498453,
                0.54557943, 0.42286240, 0.28870538, 0.14621629, 0.00000000
              },
              {
                1.00019209, 1.00019474, 1.00020256, 1.00021508, 1.00023154,
                1.00025082, 1.00027139, 1.00029130, 1.00030809, 1.00031880,
                1.00031989, 1.00030724, 1.00027621, 1.00022165, 1.00013806,
                1.00001978, 0.99986129, 0.99965756, 0.99940462, 0.99910017,
                0.99874439, 0.99834091, 0.99789782, 0.99742896, 0.99695517,
                0.99650563, 0.99611919, 0.99584547, 0.99574578, 0.99589348,
                0.99637377, 0.99728246, 0.99872365, 1.00080574, 1.00363574,
                1.00731119, 1.01190970, 1.01747555, 1.02400329, 1.03141825,
                1.03955405, 1.04812757, 1.05671198, 1.06470909, 1.07132268,
                1.07553507, 1.07608993, 1.07148511, 1.05998010, 1.03962346,
                1.00830653, 0.96385021, 0.90413211, 0.82726137, 0.73180831,
                0.61709443, 0.48354699, 0.33311877, 0.16976956, 0.00000000
              },
              {
                0.99997049, 0.99997192, 0.99997626, 0.99998361, 0.99999409,
                1.00000788, 1.00002510, 1.00004581, 1.00006991, 1.00009706,
                1.00012659, 1.00015741, 1.00018785, 1.00021560, 1.00023755,
                1.00024971, 1.00024720, 1.00022417, 1.00017397, 1.00008924,
                0.99996234, 0.99978577, 0.99955296, 0.99925919, 0.99890285,
                0.99848700, 0.99802113, 0.99752331, 0.99702244, 0.99656060,
                0.99619529, 0.99600144, 0.99607257, 0.99652105, 0.99747660,
                0.99908272, 1.00149011, 1.00484648, 1.00928191, 1.01488904,
                1.02169755, 1.02964247, 1.03852646, 1.04797657, 1.05739706,
                1.06592044, 1.07236069, 1.07517374, 1.07243233, 1.06182427,
                1.04068511, 1.00607845, 0.95493867, 0.88429231, 0.79157445,
                0.67505553, 0.53439100, 0.37130066, 0.19037588, 0.00000000
              },
              {
                0.99997364, 0.99997368, 0.99997384, 0.99997426, 0.99997517,
                0.99997686, 0.99997975, 0.99998427, 0.99999096, 1.00000032,
                1.00001286, 1.00002901, 1.00004899, 1.00007278, 1.00009995,
                1.00012948, 1.00015968, 1.00018789, 1.00021041, 1.00022230,
                1.00021727, 1.00018772, 1.00012487, 1.00001905, 0.99986035,
                0.99963951, 0.99934926, 0.99898608, 0.99855252, 0.99805994,
                0.99753181, 0.99700728, 0.99654493, 0.99622624, 0.99615844,
                0.99647590, 0.99733927, 0.99893123, 1.00144775, 1.00508314,
                1.01000776, 1.01633666, 1.02408823, 1.03313215, 1.04312684,
                1.05344805, 1.06311197, 1.07069844, 1.07428331, 1.07139204,
                1.05899097, 1.03353712, 0.99111150, 0.92766464, 0.83940566,
                0.72336607, 0.57816649, 0.40500596, 0.20887869, 0.00000000
              },
              {
                0.99999456, 0.99999433, 0.99999367, 0.99999261, 0.99999123,
                0.99998964, 0.99998801, 0.99998656, 0.99998561, 0.99998553,
                0.99998679, 0.99998994, 0.99999561, 1.00000441, 1.00001696,
                1.00003371, 1.00005488, 1.00008026, 1.00010902, 1.00013947,
                1.00016882, 1.00019286, 1.00020580, 1.00020006, 1.00016626,
                1.00009343, 0.99996948, 0.99978219, 0.99952068, 0.99917751,
                0.99875166, 0.99825221, 0.99770283, 0.99714696, 0.99665326,
                0.99632088, 0.99628371, 0.99671249, 0.99781325, 0.99982017,
                1.00298066, 1.00753017, 1.01365415, 1.02143487, 1.03078148,
                1.04134301, 1.05240613, 1.06278250, 1.07069487, 1.07367649,
                1.06850489, 1.05119901, 1.01711649, 0.96119615, 0.87839702,
                0.76438867, 0.61654535, 0.43528605, 0.22578009, 0.00000000
              },
              {
                1.00000140, 1.00000128, 1.00000093, 1.00000034, 0.99999949,
                0.99999836, 0.99999697, 0.99999532, 0.99999349, 0.99999158,
                0.99998979, 0.99998838, 0.99998775, 0.99998838, 0.99999089,
                0.99999599, 1.00000442, 1.00001690, 1.00003400, 1.00005598,
                1.00008251, 1.00011243, 1.00014343, 1.00017161, 1.00019120,
                1.00019422, 1.00017034, 1.00010703, 0.99999005, 0.99980460,
                0.99953717, 0.99917835, 0.99872686, 0.99819466, 0.99761328,
                0.99704113, 0.99657109, 0.99633764, 0.99652195, 0.99735297,
                0.99910180, 1.00206611, 1.00654063, 1.01276978, 1.02087839,
                1.03077770, 1.04204569, 1.05378429, 1.06446121, 1.07175136,
                1.07240251, 1.06216131, 1.03580953, 0.98737405, 0.91058768,
                0.79968660, 0.65063192, 0.46283158, 0.24140799, 0.00000000
              },
              {
                1.00000154, 1.00000152, 1.00000146, 1.00000135, 1.00000115,
                1.00000082, 1.00000033, 0.99999962, 0.99999866, 0.99999743,
                0.99999592, 0.99999420, 0.99999237, 0.99999066, 0.99998938,
                0.99998901, 0.99999013, 0.99999350, 0.99999997, 1.00001040,
                1.00002559, 1.00004603, 1.00007165, 1.00010147, 1.00013317,
                1.00016260, 1.00018332, 1.00018615, 1.00015899, 1.00008695,
                0.99995314, 0.99974016, 0.99943291, 0.99902267, 0.99851290,
                0.99792670, 0.99731594, 0.99677130, 0.99643233, 0.99649559,
                0.99721819, 0.99891306, 1.00193101, 1.00662416, 1.01328426,
                1.02205022, 1.03278012, 1.04488681, 1.05714145, 1.06745844,
                1.07268760, 1.06845569, 1.04911935, 1.00791361, 0.93740288,
                0.83035935, 0.68120286, 0.48812603, 0.25599065, 0.00000000
              },
              {
                1.00000059, 1.00000061, 1.00000065, 1.00000071, 1.00000077,
                1.00000081, 1.00000080, 1.00000069, 1.00000045, 1.00000002,
                0.99999934, 0.99999838, 0.99999711, 0.99999556, 0.99999380,
                0.99999203, 0.99999055, 0.99998981, 0.99999044, 0.99999325,
                0.99999919, 1.00000927, 1.00002442, 1.00004522, 1.00007163,
                1.00010246, 1.00013485, 1.00016365, 1.00018078, 1.00017475,
                1.00013047, 1.00002969, 0.99985230, 0.99957896, 0.99919551,
                0.99869944, 0.99810870, 0.99747285, 0.99688587, 0.99649937,
                0.99653382, 0.99728413, 0.99911436, 1.00243475, 1.00765284,
                1.01508972, 1.02485287, 1.03665981, 1.04961203, 1.06192893,
                1.07066624, 1.07146448, 1.05840054, 1.02404742, 0.95988240,
                0.85721546, 0.70883002, 0.51152412, 0.26969466, 0.00000000
              },
              {
                1.00000006, 1.00000008, 1.00000012, 1.00000018, 1.00000027,
                1.00000038, 1.00000048, 1.00000058, 1.00000064, 1.00000062,
                1.00000047, 1.00000016, 0.99999960, 0.99999876, 0.99999760,
                0.99999612, 0.99999440, 0.99999263, 0.99999112, 0.99999037,
                0.99999110, 0.99999422, 1.00000080, 1.00001200, 1.00002882,
                1.00005180, 1.00008056, 1.00011320, 1.00014552, 1.00017029,
                1.00017642, 1.00014860, 1.00006736, 0.99991023, 0.99965443,
                0.99928164, 0.99878548, 0.99818201, 0.99752342, 0.99691400,
                0.99652694, 0.99661860, 0.99753514, 0.99970421, 1.00360197,
                1.00968366, 1.01826530, 1.02934499, 1.04235753, 1.05586567,
                1.06720856, 1.07215354, 1.06463262, 1.03668905, 0.97880991,
                0.88086997, 0.73394954, 0.53329557, 0.28264608, 0.00000000
              },
              {
                0.99999992, 0.99999992, 0.99999994, 0.99999998, 1.00000002,
                1.00000009, 1.00000018, 1.00000028, 1.00000038, 1.00000049,
                1.00000055, 1.00000056, 1.00000044, 1.00000016, 0.99999963,
                0.99999880, 0.99999763, 0.99999614, 0.99999440, 0.99999264,
                0.99999124, 0.99999082, 0.99999221, 0.99999652, 1.00000499,
                1.00001888, 1.00003914, 1.00006595, 1.00009805, 1.00013192,
                1.00016078, 1.00017365, 1.00015462, 1.00008276, 0.99993320,
                0.99967998, 0.99930158, 0.99878981, 0.99816259, 0.99748084,
                0.99686840, 0.99653274, 0.99678184, 0.99802997, 1.00078190,
                1.00558153, 1.01290879, 1.02300777, 1.03563233, 1.04970496,
                1.06290236, 1.07121112, 1.06853993, 1.04653216, 0.99479122,
                0.90180339, 0.75690331, 0.55365138, 0.29494305, 0.00000000
              },
              {
                0.99999993, 0.99999993, 0.99999993, 0.99999994, 0.99999996,
                0.99999998, 1.00000002, 1.00000007, 1.00000015, 1.00000024,
                1.00000034, 1.00000044, 1.00000051, 1.00000051, 1.00000038,
                1.00000006, 0.99999948, 0.99999858, 0.99999732, 0.99999572,
                0.99999393, 0.99999225, 0.99999120, 0.99999157, 0.99999443,
                1.00000111, 1.00001304, 1.00003144, 1.00005688, 1.00008854,
                1.00012324, 1.00015430, 1.00017035, 1.00015439, 1.00008352,
                0.99993008, 0.99966505, 0.99926466, 0.99872139, 0.99805991,
                0.99735812, 0.99677183, 0.99655955, 0.99710078, 0.99889711,
                1.00254089, 1.00863208, 1.01762077, 1.02955408, 1.04371358,
                1.05814755, 1.06913475, 1.07066760, 1.05411367, 1.00830435,
                0.92039925, 0.77796548, 0.57276049, 0.30666382, 0.00000000
              },
              {
                0.99999997, 0.99999997, 0.99999996, 0.99999996, 0.99999996,
                0.99999996, 0.99999997, 0.99999999, 1.00000002, 1.00000008,
                1.00000015, 1.00000024, 1.00000034, 1.00000043, 1.00000048,
                1.00000045, 1.00000027, 0.99999986, 0.99999915, 0.99999809,
                0.99999664, 0.99999491, 0.99999311, 0.99999173, 0.99999149,
                0.99999348, 0.99999908, 1.00000984, 1.00002723, 1.00005207,
                1.00008375, 1.00011915, 1.00015127, 1.00016777, 1.00014986,
                1.00007199, 0.99990322, 0.99961154, 0.99917235, 0.99858237,
                0.99788002, 0.99717174, 0.99666223, 0.99668289, 0.99770843,
                1.00034608, 1.00527523, 1.01311055, 1.02415936, 1.03804894,
                1.05321641, 1.06628787, 1.07143164, 1.05985568, 1.01973281,
                0.93696913, 0.79735994, 0.59076075, 0.31787196, 0.00000000
              },
              {
                0.99999999, 0.99999999, 0.99999999, 0.99999998, 0.99999998,
                0.99999997, 0.99999997, 0.99999997, 0.99999998, 1.00000000,
                1.00000003, 1.00000009, 1.00000016, 1.00000026, 1.00000036,
                1.00000044, 1.00000046, 1.00000036, 1.00000007, 0.99999950,
                0.99999857, 0.99999725, 0.99999558, 0.99999375, 0.99999219,
                0.99999162, 0.99999314, 0.99999820, 1.00000849, 1.00002565,
                1.00005067, 1.00008298, 1.00011916, 1.00015136, 1.00016562,
                1.00014049, 1.00004691, 0.99985015, 0.99951572, 0.99902052,
                0.99837120, 0.99763025, 0.99694917, 0.99660442, 0.99702754,
                0.99881379, 1.00268624, 1.00938390, 1.01943744, 1.03279733,
                1.04829315, 1.06293773, 1.07115301, 1.06409437, 1.02938862,
                0.95176993, 0.81527241, 0.60776645, 0.32861999, 0.00000000
              },
              {
                1.00000000, 1.00000000, 1.00000000, 1.00000000, 0.99999999,
                0.99999999, 0.99999998, 0.99999998, 0.99999997, 0.99999997,
                0.99999999, 1.00000001, 1.00000005, 1.00000012, 1.00000020,
                1.00000030, 1.00000039, 1.00000044, 1.00000039, 1.00000018,
                0.99999970, 0.99999887, 0.99999764, 0.99999601, 0.99999417,
                0.99999251, 0.99999179, 0.99999314, 0.99999812, 1.00000857,
                1.00002627, 1.00005227, 1.00008580, 1.00012276, 1.00015383,
                1.00016251, 1.00012371, 1.00000390, 0.99976435, 0.99936933,
                0.99880157, 0.99808662, 0.99732663, 0.99674135, 0.99670893,
                0.99779248, 1.00072840, 1.00634260, 1.01535106, 1.02799873,
                1.04350053, 1.05928161, 1.07008154, 1.06710030, 1.03752862,
                0.96501610, 0.83185897, 0.62387371, 0.33895189, 0.00000000
              },
              {
                1.00000000, 1.00000000, 1.00000000, 1.00000000, 1.00000000,
                1.00000000, 0.99999999, 0.99999999, 0.99999998, 0.99999998,
                0.99999997, 0.99999998, 1.00000000, 1.00000003, 1.00000008,
                1.00000016, 1.00000025, 1.00000035, 1.00000042, 1.00000040,
                1.00000023, 0.99999981, 0.99999904, 0.99999784, 0.99999624,
                0.99999438, 0.99999269, 0.99999195, 0.99999340, 0.99999873,
                1.00000995, 1.00002895, 1.00005671, 1.00009197, 1.00012940,
                1.00015739, 1.00015582, 1.00009474, 0.99993537, 0.99963530,
                0.99916058, 0.99850727, 0.99773408, 0.99700576, 0.99664199,
                0.99715929, 0.99928271, 1.00389142, 1.01184927, 1.02366324,
                1.03891811, 1.05546518, 1.06841303, 1.06909326, 1.04436635,
                0.97688860, 0.84725231, 0.63916425, 0.34890496, 0.00000000
              },
              {
                1.00000000, 1.00000000, 1.00000000, 1.00000000, 1.00000000,
                1.00000000, 1.00000000, 0.99999999, 0.99999999, 0.99999998,
                0.99999998, 0.99999998, 0.99999998, 0.99999999, 1.00000002,
                1.00000006, 1.00000013, 1.00000022, 1.00000032, 1.00000040,
                1.00000040, 1.00000025, 0.99999985, 0.99999910, 0.99999791,
                0.99999629, 0.99999441, 0.99999272, 0.99999211, 0.99999393,
                1.00000007, 1.00001272, 1.00003382, 1.00006407, 1.00010130,
                1.00013823, 1.00015988, 1.00014115, 1.00004602, 0.99982999,
                0.99944874, 0.99887605, 0.99813402, 0.99733657, 0.99674374,
                0.99681607, 0.99824783, 1.00194222, 1.00887533, 1.01978190,
                1.03459490, 1.05159572, 1.06630169, 1.07025308, 1.05008091,
                0.98754158, 0.86156634, 0.65370835, 0.35851115, 0.00000000
              },
              {
                1.00000000, 1.00000000, 1.00000000, 1.00000000, 1.00000000,
                1.00000000, 1.00000000, 1.00000000, 1.00000000, 0.99999999,
                0.99999999, 0.99999998, 0.99999998, 0.99999998, 0.99999999,
                1.00000001, 1.00000005, 1.00000012, 1.00000021, 1.00000030,
                1.00000038, 1.00000039, 1.00000025, 0.99999985, 0.99999908,
                0.99999785, 0.99999618, 0.99999427, 0.99999265, 0.99999232,
                0.99999485, 1.00000233, 1.00001714, 1.00004115, 1.00007449,
                1.00011345, 1.00014777, 1.00015770, 1.00011164, 0.99996636,
                0.99967229, 0.99918758, 0.99850468, 0.99769243, 0.99695283,
                0.99668532, 0.99753879, 1.00041571, 1.00637153, 1.01633405,
                1.03055836, 1.04775170, 1.06386947, 1.07072790, 1.05482361,
                0.99710736, 0.87489967, 0.66756692, 0.36779808, 0.00000000
              },
              {
                1.00000000, 1.00000000, 1.00000000, 1.00000000, 1.00000000,
                1.00000000, 1.00000000, 1.00000000, 1.00000000, 1.00000000,
                0.99999999, 0.99999999, 0.99999998, 0.99999998, 0.99999998,
                0.99999999, 1.00000001, 1.00000005, 1.00000011, 1.00000020,
                1.00000029, 1.00000037, 1.00000038, 1.00000022, 0.99999980,
                0.99999898, 0.99999768, 0.99999593, 0.99999400, 0.99999253,
                0.99999270, 0.99999634, 1.00000582, 1.00002362, 1.00005136,
                1.00008807, 1.00012760, 1.00015533, 1.00014497, 1.00005681,
                0.99984004, 0.99944285, 0.99883488, 0.99804619, 0.99722458,
                0.99670648, 0.99708519, 0.99924199, 1.00428208, 1.01329225,
                1.02682078, 1.04398982, 1.06121300, 1.07064038, 1.05872315,
                1.00570040, 0.88733838, 0.68079325, 0.37678985, 0.00000000
              }
            };
            const scalar Wi[20][60] = {
              {
                -0.03439486, -0.03441569, -0.03447654, -0.03457249, -0.03469529,
                -0.03483341, -0.03497199, -0.03509279, -0.03517422, -0.03519132,
                -0.03511570, -0.03491562, -0.03455598, -0.03399835, -0.03320108,
                -0.03211944, -0.03070571, -0.02890949, -0.02667790, -0.02395600,
                -0.02068717, -0.01681367, -0.01227727, -0.00701998, -0.00098490,
                0.00588273, 0.01363444, 0.02231722, 0.03197205, 0.04263228,
                0.05432183, 0.06705323, 0.08082541, 0.09562141, 0.11140579,
                0.12812200, 0.14568946, 0.16400061, 0.18291771, 0.20226965,
                0.22184862, 0.24140680, 0.26065299, 0.27924940, 0.29680854,
                0.31289028, 0.32699927, 0.33858273, 0.34702869, 0.35166492,
                0.35175854, 0.34651655, 0.33508741, 0.31656378, 0.28998671,
                0.25435133, 0.20861439, 0.15170369, 0.08252978, 0.00000000
              },
              {
                0.00325039, 0.00322347, 0.00314212, 0.00300449, 0.00280758,
                0.00254731, 0.00221865, 0.00181578, 0.00133233, 0.00076159,
                0.00009689, -0.00066808, -0.00153877, -0.00251934, -0.00361201,
                -0.00481648, -0.00612912, -0.00754226, -0.00904324, -0.01061356,
                -0.01222785, -0.01385289, -0.01544655, -0.01695684, -0.01832093,
                -0.01946432, -0.02030010, -0.02072852, -0.02063673, -0.01989898,
                -0.01837723, -0.01592234, -0.01237589, -0.00757286, -0.00134517,
                0.00647370, 0.01604298, 0.02750747, 0.04098910, 0.05657689,
                0.07431536, 0.09419132, 0.11611892, 0.13992325, 0.16532230,
                0.19190784, 0.21912510, 0.24625205, 0.27237857, 0.29638622,
                0.31692964, 0.33242034, 0.34101434, 0.34060494, 0.32882240,
                0.30304225, 0.26040445, 0.19784565, 0.11214697, 0.00000000
              },
              {
                0.00062375, 0.00063264, 0.00065905, 0.00070214, 0.00076052,
                0.00083211, 0.00091411, 0.00100290, 0.00109390, 0.00118146,
                0.00125877, 0.00131771, 0.00134880, 0.00134112, 0.00128235,
                0.00115882, 0.00095570, 0.00065725, 0.00024729, -0.00029025,
                -0.00097051, -0.00180671, -0.00280892, -0.00398250, -0.00532636,
                -0.00683088, -0.00847556, -0.01022647, -0.01203349, -0.01382740,
                -0.01551704, -0.01698649, -0.01809266, -0.01866343, -0.01849652,
                -0.01735969, -0.01499232, -0.01110915, -0.00540644, 0.00242883,
                0.01270616, 0.02571454, 0.04170083, 0.06084288, 0.08321708,
                0.10876017, 0.13722514, 0.16813171, 0.20071191, 0.23385210,
                0.26603295, 0.29527021, 0.31905921, 0.33432760, 0.33740144,
                0.32399111, 0.28920457, 0.22759673, 0.13326472, -0.00000000
              },
              {
                -0.00016711, -0.00016404, -0.00015468, -0.00013868, -0.00011544,
                -0.00008419, -0.00004403, 0.00000595, 0.00006663, 0.00013865,
                0.00022233, 0.00031741, 0.00042288, 0.00053670, 0.00065553,
                0.00077445, 0.00088667, 0.00098320, 0.00105265, 0.00108101,
                0.00105160, 0.00094507, 0.00073974, 0.00041209, -0.00006238,
                -0.00070784, -0.00154643, -0.00259589, -0.00386667, -0.00535835,
                -0.00705533, -0.00892197, -0.01089707, -0.01288795, -0.01476443,
                -0.01635287, -0.01743101, -0.01772402, -0.01690275, -0.01458500,
                -0.01034113, -0.00370517, 0.00580690, 0.01867028, 0.03531429,
                0.05607345, 0.08112558, 0.11041591, 0.14356700, 0.17977504,
                0.21769458, 0.25531492, 0.28983405, 0.31753770, 0.33369475,
                0.33248290, 0.30696241, 0.24911970, 0.15000596, -0.00000000
              },
              {
                -0.00007181, -0.00007239, -0.00007405, -0.00007653, -0.00007938,
                -0.00008197, -0.00008348, -0.00008286, -0.00007886, -0.00007005,
                -0.00005478, -0.00003132, 0.00000214, 0.00004730, 0.00010567,
                0.00017826, 0.00026535, 0.00036616, 0.00047839, 0.00059782,
                0.00071774, 0.00082851, 0.00091700, 0.00096620, 0.00095495,
                0.00085792, 0.00064589, 0.00028661, -0.00025375, -0.00100843,
                -0.00200675, -0.00326987, -0.00480514, -0.00659918, -0.00860963,
                -0.01075571, -0.01290785, -0.01487702, -0.01640437, -0.01715254,
                -0.01669993, -0.01454006, -0.01008817, -0.00269820, 0.00830692,
                0.02358813, 0.04372251, 0.06911186, 0.09986469, 0.13565012,
                0.17552389, 0.21772960, 0.25948160, 0.29674118, 0.32400342,
                0.33411944, 0.31818696, 0.26555159, 0.16397052, 0.00000000
              },
              {
                -0.00000147, -0.00000210, -0.00000399, -0.00000712, -0.00001147,
                -0.00001695, -0.00002344, -0.00003071, -0.00003838, -0.00004594,
                -0.00005264, -0.00005749, -0.00005922, -0.00005626, -0.00004677,
                -0.00002865, 0.00000031, 0.00004235, 0.00009943, 0.00017296,
                0.00026332, 0.00036937, 0.00048777, 0.00061223, 0.00073272,
                0.00083465, 0.00089811, 0.00089738, 0.00080069, 0.00057064,
                0.00016536, -0.00045919, -0.00134554, -0.00252930, -0.00403172,
                -0.00585002, -0.00794532, -0.01022848, -0.01254399, -0.01465308,
                -0.01621724, -0.01678425, -0.01577974, -0.01250794, -0.00616641,
                0.00411971, 0.01923734, 0.03999245, 0.06697753, 0.10039384,
                0.13982489, 0.18396097, 0.23028038, 0.27470040, 0.31122189,
                0.33160415, 0.32512304, 0.27848351, 0.17597765, -0.00000000
              },
              {
                0.00000810, 0.00000794, 0.00000747, 0.00000660, 0.00000528,
                0.00000337, 0.00000075, -0.00000271, -0.00000710, -0.00001248,
                -0.00001881, -0.00002593, -0.00003348, -0.00004086, -0.00004717,